test/networks/LineCode.dss
New   LineCode.4x10Cu_as10__VG_YMVK_asmb nphases=4 C1=0.37785 C0=0.22670999 Normamps=95.0 Units=km
~ Rmatrix = [1.87946999 |0.04947 1.87946999 |0.04947 0.04947 1.87946999 | 0.04947 0.04947 0.04947 1.87946999]
~ Xmatrix = [0.90881002 |0.81881005 0.90881002 |0.79881001 0.81881005 0.90881002 | 0.81881005 0.79881001 0.81881005 0.90881002]
New   LineCode.4x10Cu__GPLK nphases=4 C1=0.27700001 C0=0.16620001 Normamps=65.0 Units=km
~ Rmatrix = [1.87946999 |0.04947 1.87946999 |0.04947 0.04947 1.87946999 | 0.04947 0.04947 0.04947 1.87946999]
~ Xmatrix = [0.90881002 |0.82960999 0.90881002 |0.81200999 0.82960999 0.90881002 | 0.82960999 0.81200999 0.82960999 0.90881002]
New   LineCode.4x10Cu_as10Cu__YMvK_asmb nphases=4 C1=0.37785 C0=0.22670999 Normamps=95.0 Units=km
~ Rmatrix = [1.87946999 |0.04947 1.87946999 |0.04947 0.04947 1.87946999 | 0.04947 0.04947 0.04947 1.87946999]
~ Xmatrix = [0.90881002 |0.81881005 0.90881002 |0.79881001 0.81881005 0.90881002 | 0.81881005 0.79881001 0.81881005 0.90881002]
New   LineCode.4x150Al_4x6Cu_50CuAs_V_VMvKhsas nphases=4 C1=0.72000003 C0=0.43200001 Normamps=239.0 Units=km
~ Rmatrix = [0.25547001 |0.04947 0.25547001 |0.04947 0.04947 0.25547001 | 0.04947 0.04947 0.04947 0.25547001]
~ Xmatrix = [0.81673998 |0.74563998 0.81673998 |0.72983998 0.74563998 0.81673998 | 0.74563998 0.72983998 0.74563998 0.81673998]
New   LineCode.4x35Cu__GPLK nphases=4 C1=0.54000002 C0=0.324 Normamps=135.0 Units=km
~ Rmatrix = [0.57347 |0.04947 0.57347 |0.04947 0.04947 0.57347 | 0.04947 0.04947 0.04947 0.57347]
~ Xmatrix = [0.86622 |0.79961997 0.86622 |0.78482002 0.79961997 0.86622 | 0.79961997 0.78482002 0.79961997 0.86622]
New   LineCode.4x70Cu__GPLK nphases=4 C1=0.63 C0=0.37799999 Normamps=200.0 Units=km
~ Rmatrix = [0.31747001 |0.04947 0.31747001 |0.04947 0.04947 0.31747001 | 0.04947 0.04947 0.04947 0.31747001]
~ Xmatrix = [0.84265 |0.77964997 0.84265 |0.76564997 0.77964997 0.84265 | 0.77964997 0.76564997 0.77964997 0.84265]
New   LineCode.4x10Cu_as10__VO_YMvK_asmb nphases=4 C1=0.37785 C0=0.22670999 Normamps=95.0 Units=km
~ Rmatrix = [1.87946999 |0.04947 1.87946999 |0.04947 0.04947 1.87946999 | 0.04947 0.04947 0.04947 1.87946999]
~ Xmatrix = [0.90881002 |0.81881005 0.90881002 |0.79881001 0.81881005 0.90881002 | 0.81881005 0.79881001 0.81881005 0.90881002]
New   LineCode.4x16Cu_as16__VG_YMVK_asmb nphases=4 C1=0.43000001 C0=0.25800002 Normamps=122.0 Units=km
~ Rmatrix = [1.19946992 |0.04947 1.19946992 |0.04947 0.04947 1.19946992 | 0.04947 0.04947 0.04947 1.19946992]
~ Xmatrix = [0.89283001 |0.80643004 0.89283001 |0.78723001 0.80643004 0.89283001 | 0.80643004 0.78723001 0.80643004 0.89283001]
New   LineCode.4x16Cu_as16__VO_YMvK_asmb nphases=4 C1=0.43000001 C0=0.25800002 Normamps=122.0 Units=km
~ Rmatrix = [1.19946992 |0.04947 1.19946992 |0.04947 0.04947 1.19946992 | 0.04947 0.04947 0.04947 1.19946992]
~ Xmatrix = [0.89283001 |0.80643004 0.89283001 |0.78723001 0.80643004 0.89283001 | 0.80643004 0.78723001 0.80643004 0.89283001]
New   LineCode.4x16Cu__VG_VMvK_as nphases=4 C1=0.43000001 C0=0.25800002 Normamps=122.0 Units=km
~ Rmatrix = [1.19946992 |0.04947 1.19946992 |0.04947 0.04947 1.19946992 | 0.04947 0.04947 0.04947 1.19946992]
~ Xmatrix = [0.89283001 |0.80643004 0.89283001 |0.78723001 0.80643004 0.89283001 | 0.80643004 0.78723001 0.80643004 0.89283001]
New   LineCode.4x6Cu__GPLK nphases=4 C1=0.2 C0=0.12 Normamps=49.0 Units=km
~ Rmatrix = [3.12946987 |0.04947 3.12946987 |0.04947 0.04947 3.12946987 | 0.04947 0.04947 0.04947 3.12946987]
~ Xmatrix = [0.92618001 |0.83618003 0.92618001 |0.81617999 0.83618003 0.92618001 | 0.83618003 0.81617999 0.83618003 0.92618001]
New   LineCode.3x10Cu__GPLK nphases=4 C1=0.27700001 C0=0.16620001 Normamps=65.0 Units=km
~ Rmatrix = [1.87946999 |0.04947 1.87946999 |0.04947 0.04947 1.87946999 | 0.04947 0.04947 0.04947 1.87946999]
~ Xmatrix = [0.90881002 |0.82960999 0.90881002 |0.81200999 0.82960999 0.90881002 | 0.82960999 0.81200999 0.82960999 0.90881002]
New   LineCode.4x10Cu__VO_YMvKas nphases=4 C1=0.37785 C0=0.22670999 Normamps=95.0 Units=km
~ Rmatrix = [1.87946999 |0.04947 1.87946999 |0.04947 0.04947 1.87946999 | 0.04947 0.04947 0.04947 1.87946999]
~ Xmatrix = [0.90881002 |0.81881005 0.90881002 |0.79881001 0.81881005 0.90881002 | 0.81881005 0.79881001 0.81881005 0.90881002]
New   LineCode.3x2p5Cu__GPLK nphases=4 C1=0.2 C0=0.12 Normamps=32.0 Units=km
~ Rmatrix = [7.4594698 |0.04947 7.4594698 |0.04947 0.04947 7.4594698 | 0.04947 0.04947 0.04947 7.4594698]
~ Xmatrix = [0.95595002 |0.86595005 0.95595002 |0.84595001 0.86595005 0.95595002 | 0.86595005 0.84595001 0.86595005 0.95595002]
New   LineCode.GPLK-Al-240 nphases=3 Normamps=290 R1=0.139 X1=0.075 R0=1.18 X0=0.631 C1=0.47 C0=0.235 Units=km
New   LineCode.GPLK-Cu-95 nphases=3 Normamps=210 R1=0.216 X1=0.083 R0=1.826 X0=0.75 C1=0.33 C0=0.165 Units=km
New   LineCode.lv_line nphases=4 C1=0.46 C0=0.28 Normamps=428.0 Units=km
~ Rmatrix = [0.08 |0.0 0.08 |0.0 0.0 0.08 | 0.0 0.0 0.0 0.08]
~ Xmatrix = [0.16 |0.0 0.16 |0.0 0.0 0.16 | 0.0 0.0 0.0 0.16]
New   LineCode.lv_line_to_home nphases=4 C1=0.2 C0=0.12 Normamps=32.0 Units=km
~ Rmatrix = [1.87946999 |0.04947 1.87946999 |0.04947 0.04947 1.87946999 | 0.04947 0.04947 0.04947 1.87946999]
~ Xmatrix = [0.90881002 |0.81881005 0.90881002 | 0.79881001 0.81881005 0.90881002 | 0.81881005 0.79881001 0.81881005 0.90881002]
New   LineCode.4x50Al_4x2p5Cu_as25__V_VMvKhsas nphases=4 C1=0.54000002 C0=0.324 Normamps=126.0 Units=km
~ Rmatrix = [0.69046998 |0.04947 0.69046998 |0.04947 0.04947 0.69046998 | 0.04947 0.04947 0.04947 0.69046998]
~ Xmatrix = [0.85408998 |0.77758998 0.85408998 |0.76058996 0.77758998 0.85408998 | 0.77758998 0.76058996 0.77758998 0.85408998]
New   LineCode.4x150Al_as50__VMvK_as nphases=4 C1=0.72000003 C0=0.43200001 Normamps=239.0 Units=km
~ Rmatrix = [0.25547001 |0.04947 0.25547001 |0.04947 0.04947 0.25547001 | 0.04947 0.04947 0.04947 0.25547001]
~ Xmatrix = [0.81673998 |0.74563998 0.81673998 |0.72983998 0.74563998 0.81673998 | 0.74563998 0.72983998 0.74563998 0.81673998]
New   LineCode.4x150Al__VMvK nphases=4 C1=0.43599999 C0=0.26159999 Normamps=248.0 Units=km
~ Rmatrix = [0.25547001 |0.04947 0.25547001 |0.04947 0.04947 0.25547001 | 0.04947 0.04947 0.04947 0.25547001]
~ Xmatrix = [0.81673998 |0.74563998 0.81673998 |0.72983998 0.74563998 0.81673998 | 0.74563998 0.72983998 0.74563998 0.81673998]
New   LineCode.4x10Cu_re_as10__YCWY_mb nphases=4 C1=0.37785 C0=0.22670999 Normamps=95.0 Units=km
~ Rmatrix = [1.87946999 |0.04947 1.87946999 |0.04947 0.04947 1.87946999 | 0.04947 0.04947 0.04947 1.87946999]
~ Xmatrix = [0.90881002 |0.81881005 0.90881002 |0.79881001 0.81881005 0.90881002 | 0.81881005 0.79881001 0.81881005 0.90881002]
New   LineCode.4x16Cu_as16__YMvK_asmb nphases=4 C1=0.43000001 C0=0.25800002 Normamps=122.0 Units=km
~ Rmatrix = [1.19946992 |0.04947 1.19946992 |0.04947 0.04947 1.19946992 | 0.04947 0.04947 0.04947 1.19946992]
~ Xmatrix = [0.89283001 |0.80643004 0.89283001 |0.78723001 0.80643004 0.89283001 | 0.80643004 0.78723001 0.80643004 0.89283001]
New   LineCode.5x10Cu__YMvK_mb nphases=4 C1=0.229 C0=0.1374 Normamps=95.0 Units=km
~ Rmatrix = [1.87946999 |0.04947 1.87946999 |0.04947 0.04947 1.87946999 | 0.04947 0.04947 0.04947 1.87946999]
~ Xmatrix = [0.90881002 |0.81881005 0.90881002 |0.79881001 0.81881005 0.90881002 | 0.81881005 0.79881001 0.81881005 0.90881002]
New   LineCode.4x25Cu__GPLK nphases=4 C1=0.47 C0=0.28200001 Normamps=112.0 Units=km
~ Rmatrix = [0.77647001 |0.04947 0.77647001 |0.04947 0.04947 0.77647001 | 0.04947 0.04947 0.04947 0.77647001]
~ Xmatrix = [0.87765998 |0.80925995 0.87765998 |0.79405999 0.80925995 0.87765998 | 0.80925995 0.79405999 0.80925995 0.87765998]
New   LineCode.4x16Cu_4x2p5Cu__GPLKh nphases=4 C1=0.34999999 C0=0.20999999 Normamps=85.0 Units=km
~ Rmatrix = [1.19946992 |0.04947 1.19946992 |0.04947 0.04947 1.19946992 | 0.04947 0.04947 0.04947 1.19946992]
~ Xmatrix = [0.89283001 |0.82173002 0.89283001 |0.80593002 0.82173002 0.89283001 | 0.82173002 0.80593002 0.82173002 0.89283001]
New   LineCode.4x16Cu__GPLK nphases=4 C1=0.34999999 C0=0.20999999 Normamps=85.0 Units=km
~ Rmatrix = [1.19946992 |0.04947 1.19946992 |0.04947 0.04947 1.19946992 | 0.04947 0.04947 0.04947 1.19946992]
~ Xmatrix = [0.89283001 |0.82173002 0.89283001 |0.80593002 0.82173002 0.89283001 | 0.82173002 0.80593002 0.82173002 0.89283001]
New   LineCode.4x95Al__VG_VMvK_sas nphases=4 C1=0.66000003 C0=0.39600003 Normamps=184.0 Units=km
~ Rmatrix = [0.36947 |0.04947 0.36947 |0.04947 0.04947 0.36947 | 0.04947 0.04947 0.04947 0.36947]
~ Xmatrix = [0.83227003 |0.75847 0.83227003 |0.74207002 0.75847 0.83227003 | 0.75847 0.74207002 0.75847 0.83227003]
New   LineCode.4x16Al_4x1p5Cu_as10__YMvKh_asmb nphases=4 C1=0.43000001 C0=0.25800002 Normamps=65.0 Units=km
~ Rmatrix = [1.95946991 |0.04947 1.95946991 |0.04947 0.04947 1.95946991 | 0.04947 0.04947 0.04947 1.95946991]
~ Xmatrix = [0.89283001 |0.80643004 0.89283001 |0.78723001 0.80643004 0.89283001 | 0.80643004 0.78723001 0.80643004 0.89283001]
New   LineCode.4x150Al__VGPLK nphases=4 C1=0.75 C0=0.44999999 Normamps=235.0 Units=km
~ Rmatrix = [0.25547001 |0.04947 0.25547001 |0.04947 0.04947 0.25547001 | 0.04947 0.04947 0.04947 0.25547001]
~ Xmatrix = [0.81673998 |0.75553995 0.81673998 |0.74193996 0.75553995 0.81673998 | 0.75553995 0.74193996 0.75553995 0.81673998]
New   LineCode.4x50Al__GPLK nphases=4 C1=0.61000001 C0=0.366 Normamps=121.0 Units=km
~ Rmatrix = [0.69046998 |0.04947 0.69046998 |0.04947 0.04947 0.69046998 | 0.04947 0.04947 0.04947 0.69046998]
~ Xmatrix = [0.85408998 |0.78928995 0.85408998 |0.77489001 0.78928995 0.85408998 | 0.78928995 0.77489001 0.78928995 0.85408998]
New   LineCode.4x50Cu__GPLK nphases=4 C1=0.61000001 C0=0.366 Normamps=158.0 Units=km
~ Rmatrix = [0.43647 |0.04947 0.43647 |0.04947 0.04947 0.43647 | 0.04947 0.04947 0.04947 0.43647]
~ Xmatrix = [0.85408998 |0.78928995 0.85408998 |0.77489001 0.78928995 0.85408998 | 0.78928995 0.77489001 0.78928995 0.85408998]
New   LineCode.4x150Cu__VMvK_as nphases=4 C1=0.72000003 C0=0.43200001 Normamps=414.0 Units=km
~ Rmatrix = [0.17347001 |0.04947 0.17347001 |0.04947 0.04947 0.17347001 | 0.04947 0.04947 0.04947 0.17347001]
~ Xmatrix = [0.81673998 |0.74563998 0.81673998 |0.72983998 0.74563998 0.81673998 | 0.74563998 0.72983998 0.74563998 0.81673998]
New   LineCode.4x95Al_4x6Cu_35CuAs_V_VMvKhsas nphases=4 C1=0.66000003 C0=0.39600003 Normamps=184.0 Units=km
~ Rmatrix = [0.36947 |0.04947 0.36947 |0.04947 0.04947 0.36947 | 0.04947 0.04947 0.04947 0.36947]
~ Xmatrix = [0.83227003 |0.75847 0.83227003 |0.74207002 0.75847 0.83227003 | 0.75847 0.74207002 0.75847 0.83227003]
New   LineCode.5x6Cu__YMvK_asmb nphases=4 C1=0.186 C0=0.1116 Normamps=71.0 Units=km
~ Rmatrix = [3.12946987 |0.04947 3.12946987 |0.04947 0.04947 3.12946987 | 0.04947 0.04947 0.04947 3.12946987]
~ Xmatrix = [0.92618001 |0.82988 0.92618001 |0.80848002 0.82988 0.92618001 | 0.82988 0.80848002 0.82988 0.92618001]
New   LineCode.4x6Cu__VMvK nphases=4 C1=0.186 C0=0.1116 Normamps=71.0 Units=km
~ Rmatrix = [3.12946987 |0.04947 3.12946987 |0.04947 0.04947 3.12946987 | 0.04947 0.04947 0.04947 3.12946987]
~ Xmatrix = [0.92618001 |0.82988 0.92618001 |0.80848002 0.82988 0.92618001 | 0.82988 0.80848002 0.82988 0.92618001]
New   LineCode.4x10Cu_4x2p5Cu__GPLKh nphases=4 C1=0.27700001 C0=0.16620001 Normamps=65.0 Units=km
~ Rmatrix = [1.87946999 |0.04947 1.87946999 |0.04947 0.04947 1.87946999 | 0.04947 0.04947 0.04947 1.87946999]
~ Xmatrix = [0.90881002 |0.82960999 0.90881002 |0.81200999 0.82960999 0.90881002 | 0.82960999 0.81200999 0.82960999 0.90881002]
New   LineCode.4x50Cu__VMvK nphases=4 C1=0.308 C0=0.1848 Normamps=222.0 Units=km
~ Rmatrix = [0.43647 |0.04947 0.43647 |0.04947 0.04947 0.43647 | 0.04947 0.04947 0.04947 0.43647]
~ Xmatrix = [0.85408998 |0.77758998 0.85408998 |0.76058996 0.77758998 0.85408998 | 0.77758998 0.76058996 0.77758998 0.85408998]
New   LineCode.4x10Cu__VG_VMVK nphases=4 C1=0.229 C0=0.1374 Normamps=95.0 Units=km
~ Rmatrix = [1.87946999 |0.04947 1.87946999 |0.04947 0.04947 1.87946999 | 0.04947 0.04947 0.04947 1.87946999]
~ Xmatrix = [0.90881002 |0.81881005 0.90881002 |0.79881001 0.81881005 0.90881002 | 0.81881005 0.79881001 0.81881005 0.90881002]
New   LineCode.4x10Cu__VG_VMvKas nphases=4 C1=0.37785 C0=0.22670999 Normamps=95.0 Units=km
~ Rmatrix = [1.87946999 |0.04947 1.87946999 |0.04947 0.04947 1.87946999 | 0.04947 0.04947 0.04947 1.87946999]
~ Xmatrix = [0.90881002 |0.81881005 0.90881002 |0.79881001 0.81881005 0.90881002 | 0.81881005 0.79881001 0.81881005 0.90881002]
New   LineCode.4x6Cu__VO_YMvK_asmb nphases=4 C1=0.30689999 C0=0.18414 Normamps=71.0 Units=km
~ Rmatrix = [3.12946987 |0.04947 3.12946987 |0.04947 0.04947 3.12946987 | 0.04947 0.04947 0.04947 3.12946987]
~ Xmatrix = [0.92618001 |0.82988 0.92618001 |0.80848002 0.82988 0.92618001 | 0.82988 0.80848002 0.82988 0.92618001]
New   LineCode.4x4Cu__VMvK nphases=4 C1=0.17200001 C0=0.1032 Normamps=57.0 Units=km
~ Rmatrix = [4.65947008 |0.04947 4.65947008 |0.04947 0.04947 4.65947008 | 0.04947 0.04947 0.04947 4.65947008]
~ Xmatrix = [0.93997002 |0.83827001 0.93997002 |0.81567001 0.83827001 0.93997002 | 0.83827001 0.81567001 0.83827001 0.93997002]
New   LineCode.4x16Cu_as16__VG_VMvK_as nphases=4 C1=0.43000001 C0=0.25800002 Normamps=122.0 Units=km
~ Rmatrix = [1.19946992 |0.04947 1.19946992 |0.04947 0.04947 1.19946992 | 0.04947 0.04947 0.04947 1.19946992]
~ Xmatrix = [0.89283001 |0.80643004 0.89283001 |0.78723001 0.80643004 0.89283001 | 0.80643004 0.78723001 0.80643004 0.89283001]
New   LineCode.4x10Cu_4x1p5Cu__GPLKh nphases=4 C1=0.27700001 C0=0.16620001 Normamps=65.0 Units=km
~ Rmatrix = [1.87946999 |0.04947 1.87946999 |0.04947 0.04947 1.87946999 | 0.04947 0.04947 0.04947 1.87946999]
~ Xmatrix = [0.90881002 |0.82960999 0.90881002 |0.81200999 0.82960999 0.90881002 | 0.82960999 0.81200999 0.82960999 0.90881002]
New   LineCode.4x25Cu__VMvK nphases=4 C1=0.29100001 C0=0.17460001 Normamps=156.0 Units=km
~ Rmatrix = [0.77647001 |0.04947 0.77647001 |0.04947 0.04947 0.77647001 | 0.04947 0.04947 0.04947 0.77647001]
~ Xmatrix = [0.87765998 |0.79306 0.87765998 |0.77425998 0.79306 0.87765998 | 0.79306 0.77425998 0.79306 0.87765998]
New   LineCode.4x4Cu__GPLK nphases=4 C1=0.2 C0=0.12 Normamps=40.0 Units=km
~ Rmatrix = [4.65947008 |0.04947 4.65947008 |0.04947 0.04947 4.65947008 | 0.04947 0.04947 0.04947 4.65947008]
~ Xmatrix = [0.93997002 |0.84997004 0.93997002 |0.82997 0.84997004 0.93997002 | 0.84997004 0.82997 0.84997004 0.93997002]
New   LineCode.4x150Al_as50Cu__V_VMvKsas nphases=4 C1=0.72000003 C0=0.43200001 Normamps=239.0 Units=km
~ Rmatrix = [0.25547001 |0.04947 0.25547001 |0.04947 0.04947 0.25547001 | 0.04947 0.04947 0.04947 0.25547001]
~ Xmatrix = [0.81673998 |0.74563998 0.81673998 |0.72983998 0.74563998 0.81673998 | 0.74563998 0.72983998 0.74563998 0.81673998]
New   LineCode.7x2p5Cu__GPLK nphases=4 C1=0.2 C0=0.12 Normamps=32.0 Units=km
~ Rmatrix = [7.4594698 |0.04947 7.4594698 |0.04947 0.04947 7.4594698 | 0.04947 0.04947 0.04947 7.4594698]
~ Xmatrix = [0.95595002 |0.86595005 0.95595002 |0.84595001 0.86595005 0.95595002 | 0.86595005 0.84595001 0.86595005 0.95595002]
New   LineCode.3x2p5Cu_as2p5__VO_YMvK_asmb nphases=4 C1=0.25740001 C0=0.15444 Normamps=45.0 Units=km
~ Rmatrix = [7.4594698 |0.04947 7.4594698 |0.04947 0.04947 7.4594698 | 0.04947 0.04947 0.04947 7.4594698]
~ Xmatrix = [0.95595002 |0.84885001 0.95595002 |0.82505 0.84885001 0.95595002 | 0.84885001 0.82505 0.84885001 0.95595002]
New   LineCode.3x2p5Cu__VMVK_as nphases=4 C1=0.25740001 C0=0.15444 Normamps=45.0 Units=km
~ Rmatrix = [7.4594698 |0.04947 7.4594698 |0.04947 0.04947 7.4594698 | 0.04947 0.04947 0.04947 7.4594698]
~ Xmatrix = [0.95595002 |0.84885001 0.95595002 |0.82505 0.84885001 0.95595002 | 0.84885001 0.82505 0.84885001 0.95595002]
New   LineCode.2x2p5Cu_as2p5__VO_YMvK_asmb nphases=4 C1=0.25740001 C0=0.15444 Normamps=45.0 Units=km
~ Rmatrix = [7.4594698 |0.04947 7.4594698 |0.04947 0.04947 7.4594698 | 0.04947 0.04947 0.04947 7.4594698]
~ Xmatrix = [0.95595002 |0.84885001 0.95595002 |0.82505 0.84885001 0.95595002 | 0.84885001 0.82505 0.84885001 0.95595002]
New   LineCode.5x10Cu__VMvK nphases=4 C1=0.229 C0=0.1374 Normamps=95.0 Units=km
~ Rmatrix = [1.87946999 |0.04947 1.87946999 |0.04947 0.04947 1.87946999 | 0.04947 0.04947 0.04947 1.87946999]
~ Xmatrix = [0.90881002 |0.81881005 0.90881002 |0.79881001 0.81881005 0.90881002 | 0.81881005 0.79881001 0.81881005 0.90881002]
New   LineCode.4x10Cu_as10__EO_YMEK_aszh nphases=4 C1=0.37785 C0=0.22670999 Normamps=95.0 Units=km
~ Rmatrix = [1.87946999 |0.04947 1.87946999 |0.04947 0.04947 1.87946999 | 0.04947 0.04947 0.04947 1.87946999]
~ Xmatrix = [0.90881002 |0.81881005 0.90881002 |0.79881001 0.81881005 0.90881002 | 0.81881005 0.79881001 0.81881005 0.90881002]
New   LineCode.4x50Al_4x2p5Cu__VG_VMvKh nphases=4 C1=0.308 C0=0.1848 Normamps=126.0 Units=km
~ Rmatrix = [0.69046998 |0.04947 0.69046998 |0.04947 0.04947 0.69046998 | 0.04947 0.04947 0.04947 0.69046998]
~ Xmatrix = [0.85408998 |0.77758998 0.85408998 |0.76058996 0.77758998 0.85408998 | 0.77758998 0.76058996 0.77758998 0.85408998]
New   LineCode.5x16Cu__YMvK_mb nphases=4 C1=0.264 C0=0.1584 Normamps=122.0 Units=km
~ Rmatrix = [1.19946992 |0.04947 1.19946992 |0.04947 0.04947 1.19946992 | 0.04947 0.04947 0.04947 1.19946992]
~ Xmatrix = [0.89283001 |0.80553001 0.89283001 |0.78613001 0.80553001 0.89283001 | 0.80553001 0.78613001 0.80553001 0.89283001]
New   LineCode.4x6Cu__VG_YMvKas nphases=4 C1=0.30689999 C0=0.18414 Normamps=71.0 Units=km
~ Rmatrix = [3.12946987 |0.04947 3.12946987 |0.04947 0.04947 3.12946987 | 0.04947 0.04947 0.04947 3.12946987]
~ Xmatrix = [0.92618001 |0.82988 0.92618001 |0.80848002 0.82988 0.92618001 | 0.82988 0.80848002 0.82988 0.92618001]
New   LineCode.4x50Cu_2x10Cu_2x2p5Cu__GPLKh nphases=4 C1=0.61000001 C0=0.366 Normamps=158.0 Units=km
~ Rmatrix = [0.43647 |0.04947 0.43647 |0.04947 0.04947 0.43647 | 0.04947 0.04947 0.04947 0.43647]
~ Xmatrix = [0.85408998 |0.78928995 0.85408998 |0.77489001 0.78928995 0.85408998 | 0.78928995 0.77489001 0.78928995 0.85408998]
New   LineCode.4x6Cu_4x2p5Cu__VG_YMVKh_as nphases=4 C1=0.30689999 C0=0.18414 Normamps=71.0 Units=km
~ Rmatrix = [3.12946987 |0.04947 3.12946987 |0.04947 0.04947 3.12946987 | 0.04947 0.04947 0.04947 3.12946987]
~ Xmatrix = [0.92618001 |0.82988 0.92618001 |0.80848002 0.82988 0.92618001 | 0.82988 0.80848002 0.82988 0.92618001]
New   LineCode.4x25Cu_2x6Cu_2x2p5Cu__GPLKh nphases=4 C1=0.47 C0=0.28200001 Normamps=112.0 Units=km
~ Rmatrix = [0.77647001 |0.04947 0.77647001 |0.04947 0.04947 0.77647001 | 0.04947 0.04947 0.04947 0.77647001]
~ Xmatrix = [0.87765998 |0.80925995 0.87765998 |0.79405999 0.80925995 0.87765998 | 0.80925995 0.79405999 0.80925995 0.87765998]
New   LineCode.4x10Cu_4x2p5Cu__VMvKh nphases=4 C1=0.229 C0=0.1374 Normamps=95.0 Units=km
~ Rmatrix = [1.87946999 |0.04947 1.87946999 |0.04947 0.04947 1.87946999 | 0.04947 0.04947 0.04947 1.87946999]
~ Xmatrix = [0.90881002 |0.81881005 0.90881002 |0.79881001 0.81881005 0.90881002 | 0.81881005 0.79881001 0.81881005 0.90881002]
New   LineCode.4x6Cu_4x2p5Cu__GPLKh nphases=4 C1=0.2 C0=0.12 Normamps=49.0 Units=km
~ Rmatrix = [3.12946987 |0.04947 3.12946987 |0.04947 0.04947 3.12946987 | 0.04947 0.04947 0.04947 3.12946987]
~ Xmatrix = [0.92618001 |0.83618003 0.92618001 |0.81617999 0.83618003 0.92618001 | 0.83618003 0.81617999 0.83618003 0.92618001]
New   LineCode.2x6Cu__VMvK nphases=4 C1=0.186 C0=0.1116 Normamps=71.0 Units=km
~ Rmatrix = [3.12946987 |0.04947 3.12946987 |0.04947 0.04947 3.12946987 | 0.04947 0.04947 0.04947 3.12946987]
~ Xmatrix = [0.92618001 |0.82988 0.92618001 |0.80848002 0.82988 0.92618001 | 0.82988 0.80848002 0.82988 0.92618001]
New   LineCode.4x6Cu_as6__VO_YMvK_asmb nphases=4 C1=0.30689999 C0=0.18414 Normamps=71.0 Units=km
~ Rmatrix = [3.12946987 |0.04947 3.12946987 |0.04947 0.04947 3.12946987 | 0.04947 0.04947 0.04947 3.12946987]
~ Xmatrix = [0.92618001 |0.82988 0.92618001 |0.80848002 0.82988 0.92618001 | 0.82988 0.80848002 0.82988 0.92618001]
New   LineCode.4x50Al__VMvK nphases=4 C1=0.308 C0=0.1848 Normamps=126.0 Units=km
~ Rmatrix = [0.69046998 |0.04947 0.69046998 |0.04947 0.04947 0.69046998 | 0.04947 0.04947 0.04947 0.69046998]
~ Xmatrix = [0.85408998 |0.77758998 0.85408998 |0.76058996 0.77758998 0.85408998 | 0.77758998 0.76058996 0.77758998 0.85408998]
New   LineCode.4x150Al__VG_VMvK nphases=4 C1=0.43599999 C0=0.26159999 Normamps=248.0 Units=km
~ Rmatrix = [0.25547001 |0.04947 0.25547001 |0.04947 0.04947 0.25547001 | 0.04947 0.04947 0.04947 0.25547001]
~ Xmatrix = [0.81673998 |0.74563998 0.81673998 |0.72983998 0.74563998 0.81673998 | 0.74563998 0.72983998 0.74563998 0.81673998]
New   LineCode.3x10Cu__VG_VMvK_as nphases=4 C1=0.37785 C0=0.22670999 Normamps=95.0 Units=km
~ Rmatrix = [1.87946999 |0.04947 1.87946999 |0.04947 0.04947 1.87946999 | 0.04947 0.04947 0.04947 1.87946999]
~ Xmatrix = [0.90881002 |0.81881005 0.90881002 |0.79881001 0.81881005 0.90881002 | 0.81881005 0.79881001 0.81881005 0.90881002]
New   LineCode.4x50Al__VG_VMvK nphases=4 C1=0.308 C0=0.1848 Normamps=126.0 Units=km
~ Rmatrix = [0.69046998 |0.04947 0.69046998 |0.04947 0.04947 0.69046998 | 0.04947 0.04947 0.04947 0.69046998]
~ Xmatrix = [0.85408998 |0.77758998 0.85408998 |0.76058996 0.77758998 0.85408998 | 0.77758998 0.76058996 0.77758998 0.85408998]
New   LineCode.4x6Cu_4x2p5Cu__VO_YMvKh_asmb nphases=4 C1=0.30689999 C0=0.18414 Normamps=71.0 Units=km
~ Rmatrix = [3.12946987 |0.04947 3.12946987 |0.04947 0.04947 3.12946987 | 0.04947 0.04947 0.04947 3.12946987]
~ Xmatrix = [0.92618001 |0.82988 0.92618001 |0.80848002 0.82988 0.92618001 | 0.82988 0.80848002 0.82988 0.92618001]
New   LineCode.4x50Al_4x6Cu_as25__VG_VMvKh_sas nphases=4 C1=0.54000002 C0=0.324 Normamps=126.0 Units=km
~ Rmatrix = [0.69046998 |0.04947 0.69046998 |0.04947 0.04947 0.69046998 | 0.04947 0.04947 0.04947 0.69046998]
~ Xmatrix = [0.85408998 |0.77758998 0.85408998 |0.76058996 0.77758998 0.85408998 | 0.77758998 0.76058996 0.77758998 0.85408998]
New   LineCode.4x6Cu_as6__YMvK_asmb nphases=4 C1=0.30689999 C0=0.18414 Normamps=71.0 Units=km
~ Rmatrix = [3.12946987 |0.04947 3.12946987 |0.04947 0.04947 3.12946987 | 0.04947 0.04947 0.04947 3.12946987]
~ Xmatrix = [0.92618001 |0.82988 0.92618001 |0.80848002 0.82988 0.92618001 | 0.82988 0.80848002 0.82988 0.92618001]
New   LineCode.4x6Cu_4x2p5Cu__VG_VMvKh nphases=4 C1=0.186 C0=0.1116 Normamps=71.0 Units=km
~ Rmatrix = [3.12946987 |0.04947 3.12946987 |0.04947 0.04947 3.12946987 | 0.04947 0.04947 0.04947 3.12946987]
~ Xmatrix = [0.92618001 |0.82988 0.92618001 |0.80848002 0.82988 0.92618001 | 0.82988 0.80848002 0.82988 0.92618001]
New   LineCode.4x35Cu_4x6Cu__GPLKh nphases=4 C1=0.54000002 C0=0.324 Normamps=135.0 Units=km
~ Rmatrix = [0.57347 |0.04947 0.57347 |0.04947 0.04947 0.57347 | 0.04947 0.04947 0.04947 0.57347]
~ Xmatrix = [0.86622 |0.79961997 0.86622 |0.78482002 0.79961997 0.86622 | 0.79961997 0.78482002 0.79961997 0.86622]
New   LineCode.3x35Cu_1x25Cu_2x6Cu_2x1Cu__GPLKh nphases=4 C1=0.54000002 C0=0.324 Normamps=135.0 Units=km
~ Rmatrix = [0.57347 |0.04947 0.57347 |0.04947 0.04947 0.57347 | 0.04947 0.04947 0.04947 0.57347]
~ Xmatrix = [0.86622 |0.79961997 0.86622 |0.78482002 0.79961997 0.86622 | 0.79961997 0.78482002 0.79961997 0.86622]
New   LineCode.4x6Cu_4x1Cu__GPLK nphases=4 C1=0.2 C0=0.12 Normamps=49.0 Units=km
~ Rmatrix = [3.12946987 |0.04947 3.12946987 |0.04947 0.04947 3.12946987 | 0.04947 0.04947 0.04947 3.12946987]
~ Xmatrix = [0.92618001 |0.83618003 0.92618001 |0.81617999 0.83618003 0.92618001 | 0.83618003 0.81617999 0.83618003 0.92618001]
New   LineCode.4x16Al_as10__YMvK_asmb nphases=4 C1=0.43000001 C0=0.25800002 Normamps=65.0 Units=km
~ Rmatrix = [1.95946991 |0.04947 1.95946991 |0.04947 0.04947 1.95946991 | 0.04947 0.04947 0.04947 1.95946991]
~ Xmatrix = [0.89283001 |0.80643004 0.89283001 |0.78723001 0.80643004 0.89283001 | 0.80643004 0.78723001 0.80643004 0.89283001]
New   LineCode.4x6Cu_4x1Cu__GPLKh nphases=4 C1=0.2 C0=0.12 Normamps=49.0 Units=km
~ Rmatrix = [3.12946987 |0.04947 3.12946987 |0.04947 0.04947 3.12946987 | 0.04947 0.04947 0.04947 3.12946987]
~ Xmatrix = [0.92618001 |0.83618003 0.92618001 |0.81617999 0.83618003 0.92618001 | 0.83618003 0.81617999 0.83618003 0.92618001]
New   LineCode.4x16Cu__VG_YMvKas nphases=4 C1=0.43000001 C0=0.25800002 Normamps=122.0 Units=km
~ Rmatrix = [1.19946992 |0.04947 1.19946992 |0.04947 0.04947 1.19946992 | 0.04947 0.04947 0.04947 1.19946992]
~ Xmatrix = [0.89283001 |0.80643004 0.89283001 |0.78723001 0.80643004 0.89283001 | 0.80643004 0.78723001 0.80643004 0.89283001]
New   LineCode.3x50Cu_1x35Cu_2x10Cu_2x2p5__GPLKh nphases=4 C1=0.61000001 C0=0.366 Normamps=158.0 Units=km
~ Rmatrix = [0.43647 |0.04947 0.43647 |0.04947 0.04947 0.43647 | 0.04947 0.04947 0.04947 0.43647]
~ Xmatrix = [0.85408998 |0.78928995 0.85408998 |0.77489001 0.78928995 0.85408998 | 0.78928995 0.77489001 0.78928995 0.85408998]
New   LineCode.3x50Cu_1x25Cu_2x10Cu_2x2p5__GPLKh nphases=4 C1=0.61000001 C0=0.366 Normamps=158.0 Units=km
~ Rmatrix = [0.43647 |0.04947 0.43647 |0.04947 0.04947 0.43647 | 0.04947 0.04947 0.04947 0.43647]
~ Xmatrix = [0.85408998 |0.78928995 0.85408998 |0.77489001 0.78928995 0.85408998 | 0.78928995 0.77489001 0.78928995 0.85408998]
New   LineCode.4x95Al_4x6Cu__VG_VMvKh nphases=4 C1=0.391 C0=0.23460001 Normamps=193.0 Units=km
~ Rmatrix = [0.36947 |0.04947 0.36947 |0.04947 0.04947 0.36947 | 0.04947 0.04947 0.04947 0.36947]
~ Xmatrix = [0.83227003 |0.75847 0.83227003 |0.74207002 0.75847 0.83227003 | 0.75847 0.74207002 0.75847 0.83227003]
New   LineCode.3x35Cu_1x25Cu_2x10Cu_2x2p5__GPLKh nphases=4 C1=0.54000002 C0=0.324 Normamps=135.0 Units=km
~ Rmatrix = [0.57347 |0.04947 0.57347 |0.04947 0.04947 0.57347 | 0.04947 0.04947 0.04947 0.57347]
~ Xmatrix = [0.86622 |0.79961997 0.86622 |0.78482002 0.79961997 0.86622 | 0.79961997 0.78482002 0.79961997 0.86622]
New   LineCode.4x16Cu_4x2p5Cu__VMvKh_as nphases=4 C1=0.43000001 C0=0.25800002 Normamps=122.0 Units=km
~ Rmatrix = [1.19946992 |0.04947 1.19946992 |0.04947 0.04947 1.19946992 | 0.04947 0.04947 0.04947 1.19946992]
~ Xmatrix = [0.89283001 |0.80643004 0.89283001 |0.78723001 0.80643004 0.89283001 | 0.80643004 0.78723001 0.80643004 0.89283001]
New   LineCode.4x50Cu_4x6Cu__GPLKh nphases=4 C1=0.61000001 C0=0.366 Normamps=158.0 Units=km
~ Rmatrix = [0.43647 |0.04947 0.43647 |0.04947 0.04947 0.43647 | 0.04947 0.04947 0.04947 0.43647]
~ Xmatrix = [0.85408998 |0.78928995 0.85408998 |0.77489001 0.78928995 0.85408998 | 0.78928995 0.77489001 0.78928995 0.85408998]
New   LineCode.4x50Al_2x2p5Cu__VG_VMvKh_as nphases=4 C1=0.54000002 C0=0.324 Normamps=126.0 Units=km
~ Rmatrix = [0.69046998 |0.04947 0.69046998 |0.04947 0.04947 0.69046998 | 0.04947 0.04947 0.04947 0.69046998]
~ Xmatrix = [0.85408998 |0.77758998 0.85408998 |0.76058996 0.77758998 0.85408998 | 0.77758998 0.76058996 0.77758998 0.85408998]
New   LineCode.4x150Al_as50__VG_VMVK_sas nphases=4 C1=0.72000003 C0=0.43200001 Normamps=239.0 Units=km
~ Rmatrix = [0.25547001 |0.04947 0.25547001 |0.04947 0.04947 0.25547001 | 0.04947 0.04947 0.04947 0.25547001]
~ Xmatrix = [0.81673998 |0.74563998 0.81673998 |0.72983998 0.74563998 0.81673998 | 0.74563998 0.72983998 0.74563998 0.81673998]
New   LineCode.4x16Cu_2x2p5Cu__YMvKh_asmb nphases=4 C1=0.43000001 C0=0.25800002 Normamps=122.0 Units=km
~ Rmatrix = [1.19946992 |0.04947 1.19946992 |0.04947 0.04947 1.19946992 | 0.04947 0.04947 0.04947 1.19946992]
~ Xmatrix = [0.89283001 |0.80643004 0.89283001 |0.78723001 0.80643004 0.89283001 | 0.80643004 0.78723001 0.80643004 0.89283001]
New   LineCode.4x6Cu_4x2p5Cu__YMvKh_asmb nphases=4 C1=0.30689999 C0=0.18414 Normamps=71.0 Units=km
~ Rmatrix = [3.12946987 |0.04947 3.12946987 |0.04947 0.04947 3.12946987 | 0.04947 0.04947 0.04947 3.12946987]
~ Xmatrix = [0.92618001 |0.82988 0.92618001 |0.80848002 0.82988 0.92618001 | 0.82988 0.80848002 0.82988 0.92618001]
New   LineCode.4x6Cu_4x2p5Cu__VG_YMvKh_asmb nphases=4 C1=0.30689999 C0=0.18414 Normamps=71.0 Units=km
~ Rmatrix = [3.12946987 |0.04947 3.12946987 |0.04947 0.04947 3.12946987 | 0.04947 0.04947 0.04947 3.12946987]
~ Xmatrix = [0.92618001 |0.82988 0.92618001 |0.80848002 0.82988 0.92618001 | 0.82988 0.80848002 0.82988 0.92618001]
New   LineCode.4x6Cu_4x2p5Cu__VMVKh_as nphases=4 C1=0.30689999 C0=0.18414 Normamps=71.0 Units=km
~ Rmatrix = [3.12946987 |0.04947 3.12946987 |0.04947 0.04947 3.12946987 | 0.04947 0.04947 0.04947 3.12946987]
~ Xmatrix = [0.92618001 |0.82988 0.92618001 |0.80848002 0.82988 0.92618001 | 0.82988 0.80848002 0.82988 0.92618001]
New   LineCode.4x10Cu_4x1Cu__VMvKh nphases=4 C1=0.229 C0=0.1374 Normamps=95.0 Units=km
~ Rmatrix = [1.87946999 |0.04947 1.87946999 |0.04947 0.04947 1.87946999 | 0.04947 0.04947 0.04947 1.87946999]
~ Xmatrix = [0.90881002 |0.81881005 0.90881002 |0.79881001 0.81881005 0.90881002 | 0.81881005 0.79881001 0.81881005 0.90881002]
New   LineCode.4x50Cu_4x2p5Cu__VMvKh nphases=4 C1=0.308 C0=0.1848 Normamps=222.0 Units=km
~ Rmatrix = [0.43647 |0.04947 0.43647 |0.04947 0.04947 0.43647 | 0.04947 0.04947 0.04947 0.43647]
~ Xmatrix = [0.85408998 |0.77758998 0.85408998 |0.76058996 0.77758998 0.85408998 | 0.77758998 0.76058996 0.77758998 0.85408998]
New   LineCode.4x70Cu__VMvK nphases=4 C1=0.35699999 C0=0.21419999 Normamps=275.0 Units=km
~ Rmatrix = [0.31747001 |0.04947 0.31747001 |0.04947 0.04947 0.31747001 | 0.04947 0.04947 0.04947 0.31747001]
~ Xmatrix = [0.84265 |0.77784997 0.84265 |0.76345003 0.77784997 0.84265 | 0.77784997 0.76345003 0.77784997 0.84265]
New   LineCode.4x70Cu_4x2p5Cu__VMvKh nphases=4 C1=0.35699999 C0=0.21419999 Normamps=275.0 Units=km
~ Rmatrix = [0.31747001 |0.04947 0.31747001 |0.04947 0.04947 0.31747001 | 0.04947 0.04947 0.04947 0.31747001]
~ Xmatrix = [0.84265 |0.77784997 0.84265 |0.76345003 0.77784997 0.84265 | 0.77784997 0.76345003 0.77784997 0.84265]
New   LineCode.4x95Al_2x2p5Cu__VG_VMvKh_as nphases=4 C1=0.66000003 C0=0.39600003 Normamps=184.0 Units=km
~ Rmatrix = [0.36947 |0.04947 0.36947 |0.04947 0.04947 0.36947 | 0.04947 0.04947 0.04947 0.36947]
~ Xmatrix = [0.83227003 |0.75847 0.83227003 |0.74207002 0.75847 0.83227003 | 0.75847 0.74207002 0.75847 0.83227003]
New   LineCode.4x10Cu_4x2p5Cu__YMvKh_asmb nphases=4 C1=0.37785 C0=0.22670999 Normamps=95.0 Units=km
~ Rmatrix = [1.87946999 |0.04947 1.87946999 |0.04947 0.04947 1.87946999 | 0.04947 0.04947 0.04947 1.87946999]
~ Xmatrix = [0.90881002 |0.81881005 0.90881002 |0.79881001 0.81881005 0.90881002 | 0.81881005 0.79881001 0.81881005 0.90881002]
New   LineCode.4x6Cu_4x1Cu__VG_VMvKh_as nphases=4 C1=0.30689999 C0=0.18414 Normamps=71.0 Units=km
~ Rmatrix = [3.12946987 |0.04947 3.12946987 |0.04947 0.04947 3.12946987 | 0.04947 0.04947 0.04947 3.12946987]
~ Xmatrix = [0.92618001 |0.82988 0.92618001 |0.80848002 0.82988 0.92618001 | 0.82988 0.80848002 0.82988 0.92618001]
New   LineCode.4x6Cu_2x1p5Cu__VMvKh_as nphases=4 C1=0.30689999 C0=0.18414 Normamps=71.0 Units=km
~ Rmatrix = [3.12946987 |0.04947 3.12946987 |0.04947 0.04947 3.12946987 | 0.04947 0.04947 0.04947 3.12946987]
~ Xmatrix = [0.92618001 |0.82988 0.92618001 |0.80848002 0.82988 0.92618001 | 0.82988 0.80848002 0.82988 0.92618001]
New   LineCode.4x16Cu_4x1p5Cu__GPLKh nphases=4 C1=0.34999999 C0=0.20999999 Normamps=85.0 Units=km
~ Rmatrix = [1.19946992 |0.04947 1.19946992 |0.04947 0.04947 1.19946992 | 0.04947 0.04947 0.04947 1.19946992]
~ Xmatrix = [0.89283001 |0.82173002 0.89283001 |0.80593002 0.82173002 0.89283001 | 0.82173002 0.80593002 0.82173002 0.89283001]
New   LineCode.4x6Cu_2x1Cu__VMvKh nphases=4 C1=0.186 C0=0.1116 Normamps=71.0 Units=km
~ Rmatrix = [3.12946987 |0.04947 3.12946987 |0.04947 0.04947 3.12946987 | 0.04947 0.04947 0.04947 3.12946987]
~ Xmatrix = [0.92618001 |0.82988 0.92618001 |0.80848002 0.82988 0.92618001 | 0.82988 0.80848002 0.82988 0.92618001]
New   LineCode.3x50Cu_1x35Cu_2x6Cu_2x2p5__GPLKh nphases=4 C1=0.61000001 C0=0.366 Normamps=158.0 Units=km
~ Rmatrix = [0.43647 |0.04947 0.43647 |0.04947 0.04947 0.43647 | 0.04947 0.04947 0.04947 0.43647]
~ Xmatrix = [0.85408998 |0.78928995 0.85408998 |0.77489001 0.78928995 0.85408998 | 0.78928995 0.77489001 0.78928995 0.85408998]
New   LineCode.2x6Cu_4x2p5Cu__GPLKh nphases=4 C1=0.2 C0=0.12 Normamps=49.0 Units=km
~ Rmatrix = [3.12946987 |0.04947 3.12946987 |0.04947 0.04947 3.12946987 | 0.04947 0.04947 0.04947 3.12946987]
~ Xmatrix = [0.92618001 |0.83618003 0.92618001 |0.81617999 0.83618003 0.92618001 | 0.83618003 0.81617999 0.83618003 0.92618001]
New   LineCode.4x25Cu_2x6Cu_2x2p5Cu__GPLK nphases=4 C1=0.47 C0=0.28200001 Normamps=112.0 Units=km
~ Rmatrix = [0.77647001 |0.04947 0.77647001 |0.04947 0.04947 0.77647001 | 0.04947 0.04947 0.04947 0.77647001]
~ Xmatrix = [0.87765998 |0.80925995 0.87765998 |0.79405999 0.80925995 0.87765998 | 0.80925995 0.79405999 0.80925995 0.87765998]
New   LineCode.4x6Cu_2x2p5Cu__VMvKh_as nphases=4 C1=0.30689999 C0=0.18414 Normamps=71.0 Units=km
~ Rmatrix = [3.12946987 |0.04947 3.12946987 |0.04947 0.04947 3.12946987 | 0.04947 0.04947 0.04947 3.12946987]
~ Xmatrix = [0.92618001 |0.82988 0.92618001 |0.80848002 0.82988 0.92618001 | 0.82988 0.80848002 0.82988 0.92618001]
New   LineCode.4x6Cu__VG_VMvK nphases=4 C1=0.186 C0=0.1116 Normamps=71.0 Units=km
~ Rmatrix = [3.12946987 |0.04947 3.12946987 |0.04947 0.04947 3.12946987 | 0.04947 0.04947 0.04947 3.12946987]
~ Xmatrix = [0.92618001 |0.82988 0.92618001 |0.80848002 0.82988 0.92618001 | 0.82988 0.80848002 0.82988 0.92618001]
New   LineCode.4x95Al_4x2p5Cu__VMvKh nphases=4 C1=0.391 C0=0.23460001 Normamps=193.0 Units=km
~ Rmatrix = [0.36947 |0.04947 0.36947 |0.04947 0.04947 0.36947 | 0.04947 0.04947 0.04947 0.36947]
~ Xmatrix = [0.83227003 |0.75847 0.83227003 |0.74207002 0.75847 0.83227003 | 0.75847 0.74207002 0.75847 0.83227003]
New   LineCode.4x6Cu_2x1p5Cu__GPLKh nphases=4 C1=0.2 C0=0.12 Normamps=49.0 Units=km
~ Rmatrix = [3.12946987 |0.04947 3.12946987 |0.04947 0.04947 3.12946987 | 0.04947 0.04947 0.04947 3.12946987]
~ Xmatrix = [0.92618001 |0.83618003 0.92618001 |0.81617999 0.83618003 0.92618001 | 0.83618003 0.81617999 0.83618003 0.92618001]
New   LineCode.4x50Al_4x6Cu__VG_VMvKh nphases=4 C1=0.308 C0=0.1848 Normamps=126.0 Units=km
~ Rmatrix = [0.69046998 |0.04947 0.69046998 |0.04947 0.04947 0.69046998 | 0.04947 0.04947 0.04947 0.69046998]
~ Xmatrix = [0.85408998 |0.77758998 0.85408998 |0.76058996 0.77758998 0.85408998 | 0.77758998 0.76058996 0.77758998 0.85408998]
New   LineCode.4x25Cu_4x6Cu__GPLKh nphases=4 C1=0.47 C0=0.28200001 Normamps=112.0 Units=km
~ Rmatrix = [0.77647001 |0.04947 0.77647001 |0.04947 0.04947 0.77647001 | 0.04947 0.04947 0.04947 0.77647001]
~ Xmatrix = [0.87765998 |0.80925995 0.87765998 |0.79405999 0.80925995 0.87765998 | 0.80925995 0.79405999 0.80925995 0.87765998]
New   LineCode.3x25Cu__GPLK nphases=4 C1=0.47 C0=0.28200001 Normamps=112.0 Units=km
~ Rmatrix = [0.77647001 |0.04947 0.77647001 |0.04947 0.04947 0.77647001 | 0.04947 0.04947 0.04947 0.77647001]
~ Xmatrix = [0.87765998 |0.80925995 0.87765998 |0.79405999 0.80925995 0.87765998 | 0.80925995 0.79405999 0.80925995 0.87765998]
New   LineCode.4x6Cu_4x1p5Cu_as6__YMvKh_asmb nphases=4 C1=0.30689999 C0=0.18414 Normamps=71.0 Units=km
~ Rmatrix = [3.12946987 |0.04947 3.12946987 |0.04947 0.04947 3.12946987 | 0.04947 0.04947 0.04947 3.12946987]
~ Xmatrix = [0.92618001 |0.82988 0.92618001 |0.80848002 0.82988 0.92618001 | 0.82988 0.80848002 0.82988 0.92618001]
New   LineCode.4x16Cu_4x2p5Cu_as16__YMvKh_asmb nphases=4 C1=0.43000001 C0=0.25800002 Normamps=122.0 Units=km
~ Rmatrix = [1.19946992 |0.04947 1.19946992 |0.04947 0.04947 1.19946992 | 0.04947 0.04947 0.04947 1.19946992]
~ Xmatrix = [0.89283001 |0.80643004 0.89283001 |0.78723001 0.80643004 0.89283001 | 0.80643004 0.78723001 0.80643004 0.89283001]
New   LineCode.4x6Cu_2x2p5Cu__GPLKh nphases=4 C1=0.2 C0=0.12 Normamps=49.0 Units=km
~ Rmatrix = [3.12946987 |0.04947 3.12946987 |0.04947 0.04947 3.12946987 | 0.04947 0.04947 0.04947 3.12946987]
~ Xmatrix = [0.92618001 |0.83618003 0.92618001 |0.81617999 0.83618003 0.92618001 | 0.83618003 0.81617999 0.83618003 0.92618001]
New   LineCode.4x6Cu_2x1Cu__GPLKh nphases=4 C1=0.2 C0=0.12 Normamps=49.0 Units=km
~ Rmatrix = [3.12946987 |0.04947 3.12946987 |0.04947 0.04947 3.12946987 | 0.04947 0.04947 0.04947 3.12946987]
~ Xmatrix = [0.92618001 |0.83618003 0.92618001 |0.81617999 0.83618003 0.92618001 | 0.83618003 0.81617999 0.83618003 0.92618001]
New   LineCode.4x10Cu_4x1Cu__GPLKh nphases=4 C1=0.27700001 C0=0.16620001 Normamps=65.0 Units=km
~ Rmatrix = [1.87946999 |0.04947 1.87946999 |0.04947 0.04947 1.87946999 | 0.04947 0.04947 0.04947 1.87946999]
~ Xmatrix = [0.90881002 |0.82960999 0.90881002 |0.81200999 0.82960999 0.90881002 | 0.82960999 0.81200999 0.82960999 0.90881002]
New   LineCode.4x50Al_4x2p5Cu_VMvKh nphases=4 C1=0.308 C0=0.1848 Normamps=126.0 Units=km
~ Rmatrix = [0.69046998 |0.04947 0.69046998 |0.04947 0.04947 0.69046998 | 0.04947 0.04947 0.04947 0.69046998]
~ Xmatrix = [0.85408998 |0.77758998 0.85408998 |0.76058996 0.77758998 0.85408998 | 0.77758998 0.76058996 0.77758998 0.85408998]
New   LineCode.4x150Al_4x6Cu__VG_VMvKh nphases=4 C1=0.43599999 C0=0.26159999 Normamps=248.0 Units=km
~ Rmatrix = [0.25547001 |0.04947 0.25547001 |0.04947 0.04947 0.25547001 | 0.04947 0.04947 0.04947 0.25547001]
~ Xmatrix = [0.81673998 |0.74563998 0.81673998 |0.72983998 0.74563998 0.81673998 | 0.74563998 0.72983998 0.74563998 0.81673998]
New   LineCode.4x50Cu___VMvKh nphases=4 C1=0.308 C0=0.1848 Normamps=222.0 Units=km
~ Rmatrix = [0.43647 |0.04947 0.43647 |0.04947 0.04947 0.43647 | 0.04947 0.04947 0.04947 0.43647]
~ Xmatrix = [0.85408998 |0.77758998 0.85408998 |0.76058996 0.77758998 0.85408998 | 0.77758998 0.76058996 0.77758998 0.85408998]
New   LineCode.2x6Cu_2x1Cu__GPLKh nphases=4 C1=0.2 C0=0.12 Normamps=49.0 Units=km
~ Rmatrix = [3.12946987 |0.04947 3.12946987 |0.04947 0.04947 3.12946987 | 0.04947 0.04947 0.04947 3.12946987]
~ Xmatrix = [0.92618001 |0.83618003 0.92618001 |0.81617999 0.83618003 0.92618001 | 0.83618003 0.81617999 0.83618003 0.92618001]
New   LineCode.4x6Cu_2x1Cu__VG_VMvKh nphases=4 C1=0.186 C0=0.1116 Normamps=71.0 Units=km
~ Rmatrix = [3.12946987 |0.04947 3.12946987 |0.04947 0.04947 3.12946987 | 0.04947 0.04947 0.04947 3.12946987]
~ Xmatrix = [0.92618001 |0.82988 0.92618001 |0.80848002 0.82988 0.92618001 | 0.82988 0.80848002 0.82988 0.92618001]
New   LineCode.3x70Cu_1x50Cu_2x10Cu_2x2p5__GPLKh nphases=4 C1=0.63 C0=0.37799999 Normamps=200.0 Units=km
~ Rmatrix = [0.31747001 |0.04947 0.31747001 |0.04947 0.04947 0.31747001 | 0.04947 0.04947 0.04947 0.31747001]
~ Xmatrix = [0.84265 |0.77964997 0.84265 |0.76564997 0.77964997 0.84265 | 0.77964997 0.76564997 0.77964997 0.84265]
New   LineCode.3x95Cu_1x70Cu_2x10Cu_2x2p5__GPLKh nphases=4 C1=0.63999999 C0=0.384 Normamps=239.0 Units=km
~ Rmatrix = [0.24247001 |0.04947 0.24247001 |0.04947 0.04947 0.24247001 | 0.04947 0.04947 0.04947 0.24247001]
~ Xmatrix = [0.83227003 |0.77017003 0.83227003 |0.75637001 0.77017003 0.83227003 | 0.77017003 0.75637001 0.77017003 0.83227003]
New   LineCode.4x50Cu_2x2p5Cu__VMvKh nphases=4 C1=0.308 C0=0.1848 Normamps=222.0 Units=km
~ Rmatrix = [0.43647 |0.04947 0.43647 |0.04947 0.04947 0.43647 | 0.04947 0.04947 0.04947 0.43647]
~ Xmatrix = [0.85408998 |0.77758998 0.85408998 |0.76058996 0.77758998 0.85408998 | 0.77758998 0.76058996 0.77758998 0.85408998]
New   LineCode.3x2p5Cu__YMvK_asmb nphases=4 C1=0.25740001 C0=0.15444 Normamps=45.0 Units=km
~ Rmatrix = [7.4594698 |0.04947 7.4594698 |0.04947 0.04947 7.4594698 | 0.04947 0.04947 0.04947 7.4594698]
~ Xmatrix = [0.95595002 |0.84885001 0.95595002 |0.82505 0.84885001 0.95595002 | 0.84885001 0.82505 0.84885001 0.95595002]
New   LineCode.3x10Cu__YMvK_asmb nphases=4 C1=0.37785 C0=0.22670999 Normamps=95.0 Units=km
~ Rmatrix = [1.87946999 |0.04947 1.87946999 |0.04947 0.04947 1.87946999 | 0.04947 0.04947 0.04947 1.87946999]
~ Xmatrix = [0.90881002 |0.81881005 0.90881002 |0.79881001 0.81881005 0.90881002 | 0.81881005 0.79881001 0.81881005 0.90881002]
New   LineCode.4x95Cu_4x6Cu__VMvKh nphases=4 C1=0.391 C0=0.23460001 Normamps=322.0 Units=km
~ Rmatrix = [0.24247001 |0.04947 0.24247001 |0.04947 0.04947 0.24247001 | 0.04947 0.04947 0.04947 0.24247001]
~ Xmatrix = [0.83227003 |0.75847 0.83227003 |0.74207002 0.75847 0.83227003 | 0.75847 0.74207002 0.75847 0.83227003]
New   LineCode.1160_GPLK_4x6mm2_Cu nphases=4 C1=0.2 C0=0.12 Normamps=50.0 Units=km
~ Rmatrix = [3.1107 |0.04947 3.1107 |0.04935 0.04947 3.1107 | 0.04947 0.04935 0.04947 3.1107]
~ Xmatrix = [0.92439 |0.83081 0.92439 |0.80922 0.83081 0.92439 | 0.83081 0.80922 0.83081 0.92439]
New   LineCode.1379_VMvK_4x6mm2_Cu nphases=4 C1=0.186 C0=0.11 Normamps=66.0 Units=km
~ Rmatrix = [3.13 |0.0495 3.13 |0.0493 0.0495 3.13 | 0.0495 0.0493 0.0495 3.13]
~ Xmatrix = [0.89 |0.81 0.89 |0.79 0.81 0.89 | 0.81 0.79 0.81 0.89]
New   LineCode.1366_VMvK_2x6mm2_Cu nphases=4 C1=0.186 C0=0.11 Normamps=66.0 Units=km
~ Rmatrix = [3.13 |0.0495 3.13 |0.0493 0.0495 3.13 | 0.0495 0.0493 0.0495 3.13]
~ Xmatrix = [0.89 |0.81 0.89 |0.79 0.81 0.89 | 0.81 0.79 0.81 0.89]
New   LineCode.1354_VG_YMvKhas_4x25mm2_Cu___2x1p5mm2_Cu nphases=4 C1=0.291 C0=0.17 Normamps=152.0 Units=km
~ Rmatrix = [0.7766 |0.0496 0.7766 |0.049 0.0496 0.7766 | 0.0496 0.049 0.0496 0.7766]
~ Xmatrix = [0.8751 |0.7999 0.8751 |0.7782 0.7999 0.8751 | 0.7999 0.7782 0.7999 0.8751]
New   LineCode.1169_GPLK_4x10mm2_Cu nphases=4 C1=0.277 C0=0.17 Normamps=65.0 Units=km
~ Rmatrix = [1.88631 |0.04949 1.88631 |0.04933 0.04949 1.88631 | 0.04949 0.04933 0.04949 1.88631]
~ Xmatrix = [0.90965 |0.82231 0.90965 |0.80054 0.82231 0.90965 | 0.82231 0.80054 0.82231 0.90965]
New   LineCode.1059_GPLK_2x6mm2_Cu nphases=4 C1=0.2 C0=0.12 Normamps=50.0 Units=km
~ Rmatrix = [3.1107 |0.04947 3.1107 |0.04935 0.04947 3.1107 | 0.04947 0.04935 0.04947 3.1107]
~ Xmatrix = [0.92439 |0.83081 0.92439 |0.80922 0.83081 0.92439 | 0.83081 0.80922 0.83081 0.92439]
New   LineCode.1370_VMvK_3x6mm2_Cu nphases=4 C1=0.186 C0=0.15 Normamps=71.0 Units=km
~ Rmatrix = [3.9 |0.817 3.9 |0.8162 0.817 3.9 | 0.817 0.8162 0.817 3.9]
~ Xmatrix = [6.4138 |6.3127 6.4138 |6.2804 6.3127 6.4138 | 6.3127 6.2804 6.3127 6.4138]
New   LineCode.1089_GPLKh_3x16mm2_Cu___3x2p5mm2_Cu nphases=4 C1=0.35 C0=0.21 Normamps=85.0 Units=km
~ Rmatrix = [1.19767 |0.04952 1.19767 |0.04929 0.04952 1.19767 | 0.04952 0.04929 0.04952 1.19767]
~ Xmatrix = [0.89502 |0.81265 0.89502 |0.79091 0.81265 0.89502 | 0.81265 0.79091 0.81265 0.89502]
New   LineCode.1003_VO_YMvKasmb_3x6mm2_Cu nphases=4 C1=0.186 C0=0.15 Normamps=71.0 Units=km
~ Rmatrix = [3.9 |0.817 3.9 |0.8162 0.817 3.9 | 0.817 0.8162 0.817 3.9]
~ Xmatrix = [6.4138 |6.3127 6.4138 |6.2804 6.3127 6.4138 | 6.3127 6.2804 6.3127 6.4138]
New   LineCode.1235_GPLK_4x50mm2_Cu nphases=4 C1=0.61 C0=0.37 Normamps=160.0 Units=km
~ Rmatrix = [0.4362 |0.04962 0.4362 |0.04891 0.04962 0.4362 | 0.04962 0.04891 0.04962 0.4362]
~ Xmatrix = [0.84668 |0.77886 0.84668 |0.75652 0.77886 0.84668 | 0.77886 0.75652 0.77886 0.84668]
New   LineCode.1248_GPLKh_4x50mm2_Cu___4x2p5mm2_Cu nphases=4 C1=0.61 C0=0.37 Normamps=160.0 Units=km
~ Rmatrix = [0.4362 |0.04962 0.4362 |0.04891 0.04962 0.4362 | 0.04962 0.04891 0.04962 0.4362]
~ Xmatrix = [0.84668 |0.77886 0.84668 |0.75652 0.77886 0.84668 | 0.77886 0.75652 0.77886 0.84668]
New   LineCode.1184_GPLK_4x16mm2_Cu nphases=4 C1=0.35 C0=0.21 Normamps=85.0 Units=km
~ Rmatrix = [1.19771 |0.04951 1.19771 |0.04929 0.04951 1.19771 | 0.04951 0.04929 0.04951 1.19771]
~ Xmatrix = [0.89499 |0.81268 0.89499 |0.79091 0.81268 0.89499 | 0.81268 0.79091 0.81268 0.89499]
New   LineCode.1237_GPLKh_4x50mm2_Cu___2x2p5mm2_Cu nphases=4 C1=0.61 C0=0.37 Normamps=160.0 Units=km
~ Rmatrix = [0.4362 |0.04962 0.4362 |0.04891 0.04962 0.4362 | 0.04962 0.04891 0.04962 0.4362]
~ Xmatrix = [0.84668 |0.77886 0.84668 |0.75652 0.77886 0.84668 | 0.77886 0.75652 0.77886 0.84668]
New   LineCode.1195_GPLK_4x25mm2_Cu nphases=4 C1=0.47 C0=0.28 Normamps=115.0 Units=km
~ Rmatrix = [0.77553 |0.04955 0.77553 |0.04924 0.04955 0.77553 | 0.04955 0.04924 0.04955 0.77553]
~ Xmatrix = [0.875 |0.79806 0.875 |0.77632 0.79806 0.875 | 0.79806 0.77632 0.79806 0.875]
New   LineCode.1013_V_VMvKsas_4x50mm2_Al nphases=4 C1=0.54 C0=0.32 Normamps=120.0 Units=km
~ Rmatrix = [0.6904 |0.0496 0.6904 |0.0489 0.0496 0.6904 | 0.0496 0.0489 0.0496 0.6904]
~ Xmatrix = [0.864 |0.7884 0.864 |0.7665 0.7884 0.864 | 0.7884 0.7665 0.7884 0.864]
New   LineCode.1005_VO_YMvKasmb_4x6mm2_Cu nphases=4 C1=0.186 C0=0.11 Normamps=69.0 Units=km
~ Rmatrix = [3.1313 |0.0495 3.1313 |0.0493 0.0495 3.1313 | 0.0495 0.0493 0.0495 3.1313]
~ Xmatrix = [0.9282 |0.8435 0.9282 |0.8218 0.8435 0.9282 | 0.8435 0.8218 0.8435 0.9282]
New   LineCode.1553_VO_VMvKas_4x6mm2_Cu nphases=4 C1=0.186 C0=0.11 Normamps=69.0 Units=km
~ Rmatrix = [3.1313 |0.0495 3.1313 |0.0493 0.0495 3.1313 | 0.0495 0.0493 0.0495 3.1313]
~ Xmatrix = [0.9282 |0.8435 0.9282 |0.8218 0.8435 0.9282 | 0.8435 0.8218 0.8435 0.9282]
New   LineCode.1015_V_VMvKsas_4x150mm2_Al nphases=4 C1=0.72 C0=0.43 Normamps=240.0 Units=km
~ Rmatrix = [0.2553 |0.0501 0.2553 |0.0481 0.0501 0.2553 | 0.0501 0.0481 0.0501 0.2553]
~ Xmatrix = [0.8266 |0.7583 0.8266 |0.7367 0.7583 0.8266 | 0.7583 0.7367 0.7583 0.8266]
New   LineCode.1001_VG_YMvKas_4x16mm2_Cu nphases=4 C1=0.264 C0=0.16 Normamps=119.0 Units=km
~ Rmatrix = [1.2007 |0.0496 1.2007 |0.049 0.0496 1.2007 | 0.0496 0.049 0.0496 1.2007]
~ Xmatrix = [0.8892 |0.8143 0.8892 |0.7926 0.8143 0.8892 | 0.8143 0.7926 0.8143 0.8892]
New   LineCode.1391_VMvK_4x95mm2_Al nphases=4 C1=0.66 C0=0.4 Normamps=180.0 Units=km
~ Rmatrix = [0.3692 |0.0495 0.3692 |0.0488 0.0495 0.3692 | 0.0495 0.0488 0.0495 0.3692]
~ Xmatrix = [0.8128 |0.741 0.8128 |0.7189 0.741 0.8128 | 0.741 0.7189 0.741 0.8128]
New   LineCode.1006_VO_YMvKasmb_4x16mm2_Cu nphases=4 C1=0.264 C0=0.21 Normamps=123.0 Units=km
~ Rmatrix = [1.1893 |0.03813 1.1893 |0.03761 0.03813 1.1893 | 0.03813 0.03761 0.03813 1.1893]
~ Xmatrix = [0.74031 |0.66545 0.74031 |0.64371 0.66545 0.74031 | 0.66545 0.64371 0.66545 0.74031]
New   LineCode.1392_VMvK_4x120mm2_Al nphases=4 C1=0.69 C0=0.4 Normamps=0.0 Units=km
~ Rmatrix = [0.281 |0.0 0.281 |0.0 0.0 0.281 | 0.0 0.0 0.0 0.281]
~ Xmatrix = [0.081 |0.0 0.081 |0.0 0.0 0.081 | 0.0 0.0 0.0 0.081]
New   LineCode.1257_GPLK_4x70mm2_Cu nphases=4 C1=0.63 C0=0.38 Normamps=200.0 Units=km
~ Rmatrix = [0.31797 |0.04974 0.31797 |0.04881 0.04974 0.31797 | 0.04974 0.04881 0.04974 0.31797]
~ Xmatrix = [0.83811 |0.77537 0.83811 |0.75325 0.77537 0.83811 | 0.77537 0.75325 0.77537 0.83811]
New   LineCode.1014_V_VMvKsas_4x95mm2_Al nphases=4 C1=0.66 C0=0.4 Normamps=185.0 Units=km
~ Rmatrix = [0.3692 |0.0499 0.3692 |0.0485 0.0499 0.3692 | 0.0499 0.0485 0.0499 0.3692]
~ Xmatrix = [0.8413 |0.7695 0.8413 |0.7475 0.7695 0.8413 | 0.7695 0.7475 0.7695 0.8413]
New   LineCode.4495_YMvKhas_4x50p0_mm2_Al nphases=4 C1=0.54 C0=0.32 Normamps=120.0 Units=km
~ Rmatrix = [0.6904 |0.0497 0.6904 |0.0489 0.0497 0.6904 | 0.0497 0.0489 0.0497 0.6904]
~ Xmatrix = [0.8639 |0.7885 0.8639 |0.7665 0.7885 0.8639 | 0.7885 0.7665 0.7885 0.8639]
New   LineCode.1654_YMvK_4x6mm2_Cu nphases=4 C1=0.186 C0=0.15 Normamps=71.0 Units=km
~ Rmatrix = [3.9 |0.817 3.9 |0.8162 0.817 3.9 | 0.817 0.8162 0.817 3.9]
~ Xmatrix = [6.4138 |6.3127 6.4138 |6.2804 6.3127 6.4138 | 6.3127 6.2804 6.3127 6.4138]
New   LineCode.1778_NAYY_4x35mm2_Al nphases=4 C1=0.286 C0=0.324 Normamps=190.0 Units=km
~ Rmatrix = [0.56303 |0.03813 0.56303 |0.03742 0.03813 0.56303 | 0.03813 0.03742 0.03813 0.56303]
~ Xmatrix = [0.71182 |0.64751 0.71182 |0.62533 0.64751 0.71182 | 0.64751 0.62533 0.64751 0.71182]
New   LineCode.1211_GPLK_4x35mm2_Al nphases=4 C1=0.286 C0=0.324 Normamps=190.0 Units=km
~ Rmatrix = [0.56303 |0.03813 0.56303 |0.03742 0.03813 0.56303 | 0.03813 0.03742 0.03813 0.56303]
~ Xmatrix = [0.71182 |0.64751 0.71182 |0.62533 0.64751 0.71182 | 0.64751 0.62533 0.64751 0.71182]
New   LineCode.1451_VMvKas_2x6mm2_Cu nphases=4 C1=0.186 C0=0.11 Normamps=66.0 Units=km
~ Rmatrix = [3.13 |0.0495 3.13 |0.0493 0.0495 3.13 | 0.0495 0.0493 0.0495 3.13]
~ Xmatrix = [0.89 |0.81 0.89 |0.79 0.81 0.89 | 0.81 0.79 0.81 0.89]
New   LineCode.1475_VMvKas_4x35mm2_Cu nphases=4 C1=0.286 C0=0.324 Normamps=190.0 Units=km
~ Rmatrix = [0.56303 |0.03813 0.56303 |0.03742 0.03813 0.56303 | 0.03813 0.03742 0.03813 0.56303]
~ Xmatrix = [0.71182 |0.64751 0.71182 |0.62533 0.64751 0.71182 | 0.64751 0.62533 0.64751 0.71182]
New   LineCode.1368_VMvK_3x2p5mm2_Cu nphases=4 C1=0.156 C0=0.13 Normamps=45.0 Units=km
~ Rmatrix = [8.0599 |0.6393 8.0599 |0.641 0.6393 8.0599 | 0.6393 0.641 0.6393 8.0599]
~ Xmatrix = [7.1776 |7.0645 7.1776 |7.03 7.0645 7.1776 | 7.0645 7.03 7.0645 7.1776]
New   LineCode.1452_VMvKas_2x10mm2_Cu nphases=4 C1=0.229 C0=0.14 Normamps=92.0 Units=km
~ Rmatrix = [1.8789 |0.0495 1.8789 |0.0492 0.0495 1.8789 | 0.0495 0.0492 0.0495 1.8789]
~ Xmatrix = [0.9055 |0.8271 0.9055 |0.8054 0.8271 0.9055 | 0.8271 0.8054 0.8271 0.9055]
New   LineCode.1340_VG_YMvKasmb_4x16mm2_Cu nphases=4 C1=0.264 C0=0.16 Normamps=119.0 Units=km
~ Rmatrix = [1.2007 |0.0496 1.2007 |0.049 0.0496 1.2007 | 0.0496 0.049 0.0496 1.2007]
~ Xmatrix = [0.8892 |0.8143 0.8892 |0.7926 0.8143 0.8892 | 0.8143 0.7926 0.8143 0.8892]
New   LineCode.1016_V_VMvKhsas_4x50mm2_Al___4x2p5mm2_Cu nphases=4 C1=0.54 C0=0.32 Normamps=120.0 Units=km
~ Rmatrix = [0.6904 |0.0496 0.6904 |0.0489 0.0496 0.6904 | 0.0496 0.0489 0.0496 0.6904]
~ Xmatrix = [0.864 |0.7885 0.864 |0.7664 0.7885 0.864 | 0.7885 0.7664 0.7885 0.864]
New   LineCode.1018_V_VMvKhsas_4x150mm2_Al___4x6mm2_Cu nphases=4 C1=0.72 C0=0.43 Normamps=240.0 Units=km
~ Rmatrix = [0.2554 |0.0501 0.2554 |0.048 0.0501 0.2554 | 0.0501 0.048 0.0501 0.2554]
~ Xmatrix = [0.827 |0.7582 0.827 |0.7365 0.7582 0.827 | 0.7582 0.7365 0.7582 0.827]
New   LineCode.1389_VMvK_4x70mm2_Al nphases=4 C1=0.0 C0=0.0 Normamps=0.0 Units=km
~ Rmatrix = [0.443 |0.0 0.443 |0.0 0.0 0.443 | 0.0 0.0 0.0 0.443]
~ Xmatrix = [0.0 |0.0 0.0 |0.0 0.0 0.0 | 0.0 0.0 0.0 0.0]
New   LineCode.1697_YMvKas_4x16mm2_Cu nphases=4 C1=0.264 C0=0.21 Normamps=123.0 Units=km
~ Rmatrix = [1.1893 |0.03813 1.1893 |0.03761 0.03813 1.1893 | 0.03813 0.03761 0.03813 1.1893]
~ Xmatrix = [0.74031 |0.66545 0.74031 |0.64371 0.66545 0.74031 | 0.66545 0.64371 0.66545 0.74031]
New   LineCode.1087_GPLK_3x16mm2_Cu nphases=4 C1=0.35 C0=0.21 Normamps=85.0 Units=km
~ Rmatrix = [1.19771 |0.04951 1.19771 |0.04929 0.04951 1.19771 | 0.04951 0.04929 0.04951 1.19771]
~ Xmatrix = [0.89499 |0.81268 0.89499 |0.79091 0.81268 0.89499 | 0.81268 0.79091 0.81268 0.89499]
New   LineCode.1837_VO_YMvKhas_4x6mm2_Cu___2x1p5mm2_Cu nphases=4 C1=0.186 C0=0.11 Normamps=69.0 Units=km
~ Rmatrix = [3.1313 |0.0495 3.1313 |0.0493 0.0495 3.1313 | 0.0495 0.0493 0.0495 3.1313]
~ Xmatrix = [0.9282 |0.8435 0.9282 |0.8218 0.8435 0.9282 | 0.8435 0.8218 0.8435 0.9282]
New   LineCode.1471_VMvKas_4x6mm2_Cu nphases=4 C1=0.186 C0=0.11 Normamps=66.0 Units=km
~ Rmatrix = [3.13 |0.0495 3.13 |0.0493 0.0495 3.13 | 0.0495 0.0493 0.0495 3.13]
~ Xmatrix = [0.89 |0.81 0.89 |0.79 0.81 0.89 | 0.81 0.79 0.81 0.89]
New   LineCode.1562_VO_YMvKas_4x10mm2_Cu nphases=4 C1=0.229 C0=0.14 Normamps=92.0 Units=km
~ Rmatrix = [1.8789 |0.0495 1.8789 |0.0492 0.0495 1.8789 | 0.0495 0.0492 0.0495 1.8789]
~ Xmatrix = [0.9055 |0.8271 0.9055 |0.8054 0.8271 0.9055 | 0.8271 0.8054 0.8271 0.9055]
New   LineCode.1656_YMvK_4x16mm2_Cu nphases=4 C1=0.264 C0=0.21 Normamps=123.0 Units=km
~ Rmatrix = [1.1893 |0.03813 1.1893 |0.03761 0.03813 1.1893 | 0.03813 0.03761 0.03813 1.1893]
~ Xmatrix = [0.74031 |0.66545 0.74031 |0.64371 0.66545 0.74031 | 0.66545 0.64371 0.66545 0.74031]
New   LineCode.1078_GPLK_3x6mm2_Cu nphases=4 C1=0.2 C0=0.12 Normamps=50.0 Units=km
~ Rmatrix = [3.1107 |0.04947 3.1107 |0.04935 0.04947 3.1107 | 0.04947 0.04935 0.04947 3.1107]
~ Xmatrix = [0.92439 |0.83081 0.92439 |0.80922 0.83081 0.92439 | 0.83081 0.80922 0.83081 0.92439]
New   LineCode.1009_VO_YMvKas_4x2p5mm2_Cu nphases=4 C1=0.162 C0=0.1 Normamps=44.0 Units=km
~ Rmatrix = [7.4698 |0.0495 7.4698 |0.0494 0.0495 7.4698 | 0.0495 0.0494 0.0495 7.4698]
~ Xmatrix = [0.9622 |0.8679 0.9622 |0.8458 0.8679 0.9622 | 0.8679 0.8458 0.8679 0.9622]
New   LineCode.1473_VMvKas_4x16mm2_Cu nphases=4 C1=0.264 C0=0.21 Normamps=123.0 Units=km
~ Rmatrix = [1.1893 |0.03813 1.1893 |0.03761 0.03813 1.1893 | 0.03813 0.03761 0.03813 1.1893]
~ Xmatrix = [0.74031 |0.66545 0.74031 |0.64371 0.66545 0.74031 | 0.66545 0.64371 0.66545 0.74031]
New   LineCode.1796_VG_VMvKas_4x16mm2_Cu nphases=4 C1=0.264 C0=0.16 Normamps=119.0 Units=km
~ Rmatrix = [1.2007 |0.0496 1.2007 |0.049 0.0496 1.2007 | 0.0496 0.049 0.0496 1.2007]
~ Xmatrix = [0.8892 |0.8143 0.8892 |0.7926 0.8143 0.8892 | 0.8143 0.7926 0.8143 0.8892]
New   LineCode.1779_NAYY_4x70mm2_Al nphases=4 C1=0.0 C0=0.0 Normamps=0.0 Units=km
~ Rmatrix = [0.443 |0.0 0.443 |0.0 0.0 0.443 | 0.0 0.0 0.0 0.443]
~ Xmatrix = [0.0 |0.0 0.0 |0.0 0.0 0.0 | 0.0 0.0 0.0 0.0]
New   LineCode.1212_GPLK_4x35mm2_Cu nphases=4 C1=0.54 C0=0.32 Normamps=135.0 Units=km
~ Rmatrix = [0.58154 |0.0496 0.58154 |0.0492 0.0496 0.58154 | 0.0496 0.0492 0.0496 0.58154]
~ Xmatrix = [0.86488 |0.79256 0.86488 |0.77079 0.79256 0.86488 | 0.79256 0.77079 0.79256 0.86488]
New   LineCode.1382_VMvK_4x16mm2_Al nphases=4 C1=0.43 C0=0.0 Normamps=65.0 Units=km
~ Rmatrix = [1.9923 |0.08955 1.9923 |0.08934 0.08955 1.9923 | 0.08955 0.08934 0.08955 1.9923]
~ Xmatrix = [0.82757 |0.74539 0.82757 |0.72365 0.74539 0.82757 | 0.74539 0.72365 0.74539 0.82757]
New   LineCode.1418_VMvKh_4x16mm2_Cu___4x2p5mm2_Cu nphases=4 C1=0.264 C0=0.21 Normamps=123.0 Units=km
~ Rmatrix = [1.1893 |0.03813 1.1893 |0.03761 0.03813 1.1893 | 0.03813 0.03761 0.03813 1.1893]
~ Xmatrix = [0.74031 |0.66545 0.74031 |0.64371 0.66545 0.74031 | 0.66545 0.64371 0.66545 0.74031]
New   LineCode.1739_YMvKhas_4x16mm2_Cu___4x2p5mm2_Cu nphases=4 C1=0.264 C0=0.21 Normamps=123.0 Units=km
~ Rmatrix = [1.1893 |0.03813 1.1893 |0.03761 0.03813 1.1893 | 0.03813 0.03761 0.03813 1.1893]
~ Xmatrix = [0.74031 |0.66545 0.74031 |0.64371 0.66545 0.74031 | 0.66545 0.64371 0.66545 0.74031]
New   LineCode.1371_VMvK_3x10mm2_Cu nphases=4 C1=0.229 C0=0.14 Normamps=92.0 Units=km
~ Rmatrix = [1.8789 |0.0495 1.8789 |0.0492 0.0495 1.8789 | 0.0495 0.0492 0.0495 1.8789]
~ Xmatrix = [0.9055 |0.8271 0.9055 |0.8054 0.8271 0.9055 | 0.8271 0.8054 0.8271 0.9055]
New   LineCode.1387_VMvK_4x50mm2_Al nphases=4 C1=0.54 C0=0.32 Normamps=115.0 Units=km
~ Rmatrix = [0.6903 |0.0495 0.6903 |0.0492 0.0495 0.6903 | 0.0495 0.0492 0.0495 0.6903]
~ Xmatrix = [0.8314 |0.7561 0.8314 |0.7343 0.7561 0.8314 | 0.7561 0.7343 0.7561 0.8314]
New   LineCode.1474_VMvKas_4x25mm2_Cu nphases=4 C1=0.291 C0=0.282 Normamps=157.0 Units=km
~ Rmatrix = [0.76519 |0.0382 0.76519 |0.03758 0.0382 0.76519 | 0.0382 0.03758 0.0382 0.76519]
~ Xmatrix = [0.72583 |0.65068 0.72583 |0.62897 0.65068 0.72583 | 0.65068 0.62897 0.65068 0.72583]
New   LineCode.1472_VMvKas_4x10mm2_Cu nphases=4 C1=0.229 C0=0.14 Normamps=92.0 Units=km
~ Rmatrix = [1.8789 |0.0495 1.8789 |0.0492 0.0495 1.8789 | 0.0495 0.0492 0.0495 1.8789]
~ Xmatrix = [0.9055 |0.8271 0.9055 |0.8054 0.8271 0.9055 | 0.8271 0.8054 0.8271 0.9055]
New   LineCode.1428_VMvKh_4x50mm2_Al___4x2p5mm2_Cu nphases=4 C1=0.54 C0=0.32 Normamps=115.0 Units=km
~ Rmatrix = [0.6904 |0.0495 0.6904 |0.0492 0.0495 0.6904 | 0.0495 0.0492 0.0495 0.6904]
~ Xmatrix = [0.8316 |0.7559 0.8316 |0.7339 0.7559 0.8316 | 0.7559 0.7339 0.7559 0.8316]
New   LineCode.1443_VMvKh_4x120mm2_Al___4x2p5mm2_Cu nphases=4 C1=0.69 C0=0.4 Normamps=0.0 Units=km
~ Rmatrix = [0.281 |0.0 0.281 |0.0 0.0 0.281 | 0.0 0.0 0.0 0.281]
~ Xmatrix = [0.081 |0.0 0.081 |0.0 0.0 0.081 | 0.0 0.0 0.0 0.081]
New   LineCode.1266_GPLK_4x95mm2_Cu nphases=4 C1=0.64 C0=0.38 Normamps=240.0 Units=km
~ Rmatrix = [0.2451 |0.04987 0.2451 |0.04861 0.04987 0.2451 | 0.04987 0.04861 0.04987 0.2451]
~ Xmatrix = [0.82859 |0.76736 0.82859 |0.74531 0.76736 0.82859 | 0.76736 0.74531 0.76736 0.82859]
New   LineCode.1017_V_VMvKhsas_4x95mm2_Al___4x6mm2_Cu nphases=4 C1=0.66 C0=0.4 Normamps=185.0 Units=km
~ Rmatrix = [0.3693 |0.0499 0.3693 |0.0485 0.0499 0.3693 | 0.0499 0.0485 0.0499 0.3693]
~ Xmatrix = [0.8413 |0.7695 0.8413 |0.7475 0.7695 0.8413 | 0.7695 0.7475 0.7695 0.8413]
New   LineCode.1172_GPLKh_4x10mm2_Al___4x2p5mm2_Cu nphases=4 C1=0.229 C0=0.14 Normamps=92.0 Units=km
~ Rmatrix = [1.8789 |0.0495 1.8789 |0.0492 0.0495 1.8789 | 0.0495 0.0492 0.0495 1.8789]
~ Xmatrix = [0.9055 |0.8271 0.9055 |0.8054 0.8271 0.9055 | 0.8271 0.8054 0.8271 0.9055]
New   LineCode.1193_GPLKh_4x16mm2_Cu___4x2p5mm2_Cu nphases=4 C1=0.35 C0=0.21 Normamps=85.0 Units=km
~ Rmatrix = [1.19767 |0.04952 1.19767 |0.04929 0.04952 1.19767 | 0.04952 0.04929 0.04952 1.19767]
~ Xmatrix = [0.89502 |0.81265 0.89502 |0.79091 0.81265 0.89502 | 0.81265 0.79091 0.81265 0.89502]
New   LineCode.1514_VMvKhas_4x25mm2_Cu___2x2p5mm2_Cu nphases=4 C1=0.291 C0=0.282 Normamps=157.0 Units=km
~ Rmatrix = [0.76519 |0.0382 0.76519 |0.03758 0.0382 0.76519 | 0.0382 0.03758 0.0382 0.76519]
~ Xmatrix = [0.72583 |0.65068 0.72583 |0.62897 0.65068 0.72583 | 0.65068 0.62897 0.65068 0.72583]
New   LineCode.1010_VO_YMvKas_4x6mm2_Cu nphases=4 C1=0.186 C0=0.11 Normamps=69.0 Units=km
~ Rmatrix = [3.1313 |0.0495 3.1313 |0.0493 0.0495 3.1313 | 0.0495 0.0493 0.0495 3.1313]
~ Xmatrix = [0.9282 |0.8435 0.9282 |0.8218 0.8435 0.9282 | 0.8435 0.8218 0.8435 0.9282]
New   LineCode.1510_VMvKhas_4x16mm2_Cu___4x2p5mm2_Cu nphases=4 C1=0.264 C0=0.21 Normamps=123.0 Units=km
~ Rmatrix = [1.1893 |0.03813 1.1893 |0.03761 0.03813 1.1893 | 0.03813 0.03761 0.03813 1.1893]
~ Xmatrix = [0.74031 |0.66545 0.74031 |0.64371 0.66545 0.74031 | 0.66545 0.64371 0.66545 0.74031]
New   LineCode.1155_GPLK_4x2p5mm2_Cu nphases=4 C1=0.162 C0=0.1 Normamps=44.0 Units=km
~ Rmatrix = [7.4698 |0.0495 7.4698 |0.0494 0.0495 7.4698 | 0.0495 0.0494 0.0495 7.4698]
~ Xmatrix = [0.9622 |0.8679 0.9622 |0.8458 0.8679 0.9622 | 0.8679 0.8458 0.8679 0.9622]
New   LineCode.1432_VMvKh_4x70mm2_Al___4x2p5mm2_Cu nphases=4 C1=0.0 C0=0.0 Normamps=0.0 Units=km
~ Rmatrix = [0.443 |0.0 0.443 |0.0 0.0 0.443 | 0.0 0.0 0.0 0.443]
~ Xmatrix = [0.0 |0.0 0.0 |0.0 0.0 0.0 | 0.0 0.0 0.0 0.0]
New   LineCode.1394_VMvK_4x150mm2_Al nphases=4 C1=0.72 C0=0.43 Normamps=235.0 Units=km
~ Rmatrix = [0.255 |0.0495 0.255 |0.0484 0.0495 0.255 | 0.0495 0.0484 0.0495 0.255]
~ Xmatrix = [0.8 |0.731 0.8 |0.7091 0.731 0.8 | 0.731 0.7091 0.731 0.8]
New   LineCode.1444_VMvKh_4x150mm2_Al___4x2p5mm2_Cu nphases=4 C1=0.72 C0=0.43 Normamps=235.0 Units=km
~ Rmatrix = [0.255 |0.0495 0.255 |0.0484 0.0495 0.255 | 0.0495 0.0484 0.0495 0.255]
~ Xmatrix = [0.8001 |0.731 0.8001 |0.7091 0.731 0.8001 | 0.731 0.7091 0.731 0.8001]
New   LineCode.1183_GPLKh_4x10mm2_Cu___4x2p5mm2_Cu nphases=4 C1=0.277 C0=0.17 Normamps=65.0 Units=km
~ Rmatrix = [1.88634 |0.0495 1.88634 |0.04934 0.0495 1.88634 | 0.0495 0.04934 0.0495 1.88634]
~ Xmatrix = [0.90961 |0.82231 0.90961 |0.80057 0.82231 0.90961 | 0.82231 0.80057 0.82231 0.90961]
New   LineCode.1229_GPLKh_4x35mm2_Cu___4x2p5mm2_Cu nphases=4 C1=0.54 C0=0.32 Normamps=135.0 Units=km
~ Rmatrix = [0.58154 |0.04961 0.58154 |0.0492 0.04961 0.58154 | 0.04961 0.0492 0.04961 0.58154]
~ Xmatrix = [0.86488 |0.7926 0.86488 |0.77082 0.7926 0.86488 | 0.7926 0.77082 0.7926 0.86488]
New   LineCode.1772_YMvKhas_8x6mm2_Cu___8x2p5mm2_Cu nphases=4 C1=0.186 C0=0.15 Normamps=71.0 Units=km
~ Rmatrix = [3.9 |0.817 3.9 |0.8162 0.817 3.9 | 0.817 0.8162 0.817 3.9]
~ Xmatrix = [6.4138 |6.3127 6.4138 |6.2804 6.3127 6.4138 | 6.3127 6.2804 6.3127 6.4138]
New   LineCode.1549_VO_VMvK_4x6mm2_Cu nphases=4 C1=0.186 C0=0.11 Normamps=69.0 Units=km
~ Rmatrix = [3.1313 |0.0495 3.1313 |0.0493 0.0495 3.1313 | 0.0495 0.0493 0.0495 3.1313]
~ Xmatrix = [0.9282 |0.8435 0.9282 |0.8218 0.8435 0.9282 | 0.8435 0.8218 0.8435 0.9282]
New   LineCode.1416_VMvKh_4x16mm2_Al___2x1p5mm2_Cu nphases=4 C1=0.43 C0=0.0 Normamps=65.0 Units=km
~ Rmatrix = [1.9923 |0.08955 1.9923 |0.08934 0.08955 1.9923 | 0.08955 0.08934 0.08955 1.9923]
~ Xmatrix = [0.82757 |0.74539 0.82757 |0.72365 0.74539 0.82757 | 0.74539 0.72365 0.74539 0.82757]
New   LineCode.1380_VMvK_4x10mm2_Cu nphases=4 C1=0.229 C0=0.14 Normamps=92.0 Units=km
~ Rmatrix = [1.8789 |0.0495 1.8789 |0.0492 0.0495 1.8789 | 0.0495 0.0492 0.0495 1.8789]
~ Xmatrix = [0.9055 |0.8271 0.9055 |0.8054 0.8271 0.9055 | 0.8271 0.8054 0.8271 0.9055]
...